  88
Step 31
  P      4.04473263      3.14564189      0.48153596
  P      2.41068867      0.35798674     -0.04555619
  C      2.12664913      3.18792483      0.28408339
  C      1.51884213      1.86527610      0.77070446
  H      0.44458794      1.81277971      0.55255417
  H      1.64494352      1.76138992      1.85531322
  H      1.93665905      3.32925615     -0.78763849
  H      1.68311916      4.03954541      0.81054920
  C      1.23106394      0.06248887     -1.51326632
  H      1.54277421     -0.82773193     -2.06315456
  H      1.28153899      0.91909274     -2.19068667
  H      0.19934997     -0.06196257     -1.16723088
  C      1.80870555     -1.02697206      1.10811864
  H      2.35431787     -0.95457785      2.05191237
  H      2.02194650     -1.99825448      0.65209362
  H      0.73190199     -0.95102782      1.29586085
  C      4.53791858      4.78862190     -0.43189980
  C      4.01692371      6.10544594      0.16635008
  H      2.93823950      6.08068781      0.35383298
  H      4.21599960      6.93493354     -0.52677761
  H      4.52233037      6.33923024      1.10905107
  C      6.05893879      4.83733541     -0.66338956
  H      4.05591722      4.64188100     -1.40875372
  H      6.30539333      5.61282864     -1.40050901
  H      6.42856843      3.87569530     -1.03416027
  H      6.59721528      5.07022445      0.26204353
  C      4.23431429      3.42839930      2.40266168
  C      5.69334271      3.73724059      2.78068964
  H      6.38476901      3.01121088      2.34501900
  H      5.80796930      3.69847000      3.87236687
  H      5.99283156      4.74084990      2.45627949
  H      4.01367865      2.41508639      2.76239846
  C      3.26225862      4.40261449      3.08893774
  H      3.44697201      5.44282616      2.80473076
  H      3.39403835      4.33282641      4.17813813
  H      2.21330585      4.17240206      2.87534111
 Co      4.57417761      0.98003545     -0.18397504
  H      4.47033595      0.67933187      1.29654189
  P      6.62719914      0.16341276      0.03045865
  H      7.61758249     -0.14180178      2.84872633
  C      8.19386488      0.66151253      2.40065395
  C      9.14231102      1.34589571      3.17037918
  H      9.29006703      1.07131291      4.21058462
  C      9.90036567      2.37675022      2.60269005
  H     10.63803533      2.90466871      3.19907815
  C      9.70010434      2.72336173      1.26142525
  H     10.28412421      3.52044566      0.81079784
  C      8.74580070      2.04351459      0.49568402
  H      8.59050388      2.32656679     -0.54097556
  C      7.98614162      1.00268276      1.05412292
  C      8.34594977     -3.57915427      0.92749976
  C      8.19312676     -2.22884416      0.59344221
  C      6.91511854     -1.64808484      0.54955528
  C      5.79590402     -2.43384618      0.85419747
  C      5.94719516     -3.78329344      1.19846888
  H      5.07332166     -4.38117630      1.44053057
  H      4.81461081     -1.96967862      0.81998537
  H      9.07231232     -1.62737532      0.38148906
  H      9.33787890     -4.02066295      0.95433996
  C      7.22221151     -4.35869888      1.23138656
  H      7.34198429     -5.40548316      1.49388170
  H      2.96876454     -1.17526687     -6.62484842
  H      3.86882626      0.73502689     -5.33870763
  C      3.27770566     -1.31974364     -5.59384717
  C      3.78482551     -0.23578623     -4.86376751
  C      3.17455625     -2.58249185     -5.00131124
  C      4.17894277     -0.40374411     -3.52884489
  P      4.92594127      0.98128059     -2.45023625
  C      3.58351519     -2.76038860     -3.67346405
  C      4.07980201     -1.67639492     -2.94216011
  C      4.69737892      2.49745539     -3.55937989
  H      2.53863882      2.37395794     -3.50880712
  C      3.39605439      2.94364495     -3.85549812
  H      3.51568651     -3.73899189     -3.20780551
  H      6.79955972      2.93477140     -3.79824363
  C      5.78646434      3.25202796     -4.02168524
  H      4.38899232     -1.80513676     -1.90953115
  C      3.18957370      4.11214881     -4.59609963
  C      5.58219214      4.42618484     -4.75889756
  C      4.28455042      4.85890584     -5.04982751
  H      2.17789249      4.43826526     -4.81778091
  H      6.43761215      4.99859269     -5.10444082
  H      4.12619209      5.76772665     -5.62174109
  C      7.46661010      0.16309620     -1.66621457
  H      2.78247954     -3.42097618     -5.56870363
  C      6.74634793      0.54964307     -2.72399676
  H      7.13718093      0.53527043     -3.73968029
  H      8.49860001     -0.17001571     -1.75594173
